THERMO 

   300.000  1500.000  5000.000 

AR                ATcT3EAr  1    0    0    0G    200.00   6000.00 1000.00      1

 0.00000000E+00 0.00000000E+00 0.00000000E+00 0.00000000E+00 0.00000000E+00    2

 0.00000000E+00 0.00000000E+00 0.00000000E+00 0.00000000E+00 0.00000000E+00    3

 0.00000000E+00 0.00000000E+00 0.00000000E+00 0.00000000E+00                   4

W1                      C   2H   4O   2     G    300.00   4000.00 1000.00      1

 0.00000000E+00 0.00000000E+00 0.00000000E+00 0.00000000E+00 0.00000000E+00    2

 0.00000000E+00 0.00000000E+00 0.00000000E+00 0.00000000E+00 0.00000000E+00    3

 0.00000000E+00 0.00000000E+00 0.00000000E+00 0.00000000E+00                   4

W2                      C   2H   4O   2     G    300.00   4000.00 1000.00      1

 0.00000000E+00 0.00000000E+00 0.00000000E+00 0.00000000E+00 0.00000000E+00    2

 0.00000000E+00 0.00000000E+00 0.00000000E+00 0.00000000E+00 0.00000000E+00    3

 0.00000000E+00 0.00000000E+00 0.00000000E+00 0.00000000E+00                   4

Pr1                     C   2H   3O   2     G    300.00   4000.00 1000.00      1

 0.00000000E+00 0.00000000E+00 0.00000000E+00 0.00000000E+00 0.00000000E+00    2

 0.00000000E+00 0.00000000E+00 0.00000000E+00 0.00000000E+00 0.00000000E+00    3

 0.00000000E+00 0.00000000E+00 0.00000000E+00 0.00000000E+00                   4

Pr2                     C   2H   3O   2     G    300.00   4000.00 1000.00      1

 0.00000000E+00 0.00000000E+00 0.00000000E+00 0.00000000E+00 0.00000000E+00    2

 0.00000000E+00 0.00000000E+00 0.00000000E+00 0.00000000E+00 0.00000000E+00    3

 0.00000000E+00 0.00000000E+00 0.00000000E+00 0.00000000E+00                   4

Pr3                     C   2H   3O   2     G    300.00   4000.00 1000.00      1

 0.00000000E+00 0.00000000E+00 0.00000000E+00 0.00000000E+00 0.00000000E+00    2

 0.00000000E+00 0.00000000E+00 0.00000000E+00 0.00000000E+00 0.00000000E+00    3

 0.00000000E+00 0.00000000E+00 0.00000000E+00 0.00000000E+00                   4

H2O                     C   0H   1O   0     G    300.00   4000.00 1000.00      1

 0.00000000E+00 0.00000000E+00 0.00000000E+00 0.00000000E+00 0.00000000E+00    2

 0.00000000E+00 0.00000000E+00 0.00000000E+00 0.00000000E+00 0.00000000E+00    3

 0.00000000E+00 0.00000000E+00 0.00000000E+00 0.00000000E+00                   4

CO2                     C   0H   1O   0     G    300.00   4000.00 1000.00      1

 0.00000000E+00 0.00000000E+00 0.00000000E+00 0.00000000E+00 0.00000000E+00    2

 0.00000000E+00 0.00000000E+00 0.00000000E+00 0.00000000E+00 0.00000000E+00    3

 0.00000000E+00 0.00000000E+00 0.00000000E+00 0.00000000E+00                   4

CH3                     C   0H   1O   0     G    300.00   4000.00 1000.00      1

 0.00000000E+00 0.00000000E+00 0.00000000E+00 0.00000000E+00 0.00000000E+00    2

 0.00000000E+00 0.00000000E+00 0.00000000E+00 0.00000000E+00 0.00000000E+00    3

 0.00000000E+00 0.00000000E+00 0.00000000E+00 0.00000000E+00                   4

END