THERMO ALL
    300.000  1000.000  5000.000
![_ SMILES="C1C=CCC=1" _]
CPD                     H   6C   5          G   290.000  2500.000 1088.01      1
 1.52665597E+00 3.80249830E-02-2.25241293E-05 6.59905813E-09-7.66283553E-13    2
 1.34491466E+04 1.30154527E+01-6.06391277E+00 6.59306405E-02-6.09958374E-05    3
 3.01716947E-08-6.18262605E-12 1.51009043E+04 5.02759863E+01                   4
![_ SMILES="[CH]1C=CC=C1" _]
C5H5                    H   5C   5          G   290.000  2500.000  990.41      1
 3.19894286E+00 3.26719348E-02-1.99508751E-05 6.03880936E-09-7.23158840E-13    2
 2.86853606E+04 5.69031563E+00-4.75076263E+00 6.47787179E-02-6.85774651E-05    3
 3.87704910E-08-8.98532814E-12 3.02600513E+04 4.39664294E+01                   4
![_ SMILES="C1C=CC(C=1)C1C=CC=C1" _]
T1a                     H  10C  10          G   290.000  2500.000  997.76      1
 3.74069224E+00 7.54937065E-02-4.97910050E-05 1.64156284E-08-2.14692831E-12    2
 3.06016191E+04 1.60008660E+00-4.08179268E+00 8.55612763E-02-3.29153684E-05    3
-1.62487375E-08 1.13967163E-11 3.32224694E+04 4.46327208E+01                   4
![_ SMILES="C1=CCC(=C1)C1C=CC=C1" _]
T1b                     H  10C  10          G   290.000  2500.000 1000.24      1
 5.95038522E+00 6.73048242E-02-4.08660275E-05 1.24698349E-08-1.52944627E-12    2
 2.90435036E+04-7.64300019E+00-4.24119074E+00 9.22904800E-02-5.46850565E-05    3
 5.91722655E-09 4.04811124E-12 3.18712352E+04 4.54715846E+01                   4
![_ SMILES="C1=CCC(=C1)C1=CC=CC1" _]
T1c                     H  10C  10          G   290.000  2500.000  999.22      1
 5.52828884E+00 7.00007064E-02-4.37557948E-05 1.36820751E-08-1.71035204E-12    2
 2.51395059E+04-7.46498286E+00-4.34629246E+00 9.17915790E-02-4.98392250E-05    3
-2.53899025E-11 6.16425185E-12 2.79984065E+04 4.45975547E+01                   4
![_ SMILES="C1=CCC(=C1)C1C=CCC=1" _]
T1d                     H  10C  10          G   290.000  2500.000 1001.84      1
 6.09811066E+00 6.84790443E-02-4.25133381E-05 1.32534659E-08-1.65623082E-12    2
 2.54966750E+04-1.02378021E+01-4.42480421E+00 9.30374653E-02-5.31476339E-05    3
 2.93827675E-09 5.25774795E-12 2.84811462E+04 4.49205473E+01                   4
![_ SMILES="C1=CC(=CC1)C1C=CCC=1" _]
T1e                     H  10C  10          G   290.000  2500.000 1005.81      1
 6.81038039E+00 6.64632260E-02-4.06927984E-05 1.25607100E-08-1.56044749E-12    2
 2.57325564E+04-1.37649069E+01-4.51417245E+00 9.48358189E-02-5.81542314E-05    3
 7.66233280E-09 3.75131948E-12 2.88535313E+04 4.51253070E+01                   4
![_ SMILES="C1C=CC(C=1)C1C=CCC=1" _]
T1f                     H  10C  10          G   290.000  2500.000 1005.05      1
 6.64197386E+00 6.59186668E-02-3.97577237E-05 1.20718306E-08-1.47623495E-12    2
 2.85854287E+04-1.14247319E+01-4.38269968E+00 9.44839914E-02-5.95381242E-05    3
 1.00341870E-08 2.80115622E-12 3.15748395E+04 4.56657575E+01                   4
![_ SMILES="[CH]1C=CC=C1C1C=CC=C1" _]
N1a                     H   9C  10          G   290.000  2500.000 1007.08      1
 6.52593437E+00 6.55460036E-02-4.17168670E-05 1.33777358E-08-1.71678968E-12    2
 4.32568733E+04-1.08070156E+01-4.25776528E+00 8.97588477E-02-5.00491471E-05    3
 5.35785631E-10 6.02828961E-12 4.63730493E+04 4.59818187E+01                   4
![_ SMILES="[CH]1C=CC=C1C1=CC=CC1" _]
N1b                     H   9C  10          G   290.000  2500.000 1001.71      1
 5.52021526E+00 6.74082454E-02-4.30501375E-05 1.38038403E-08-1.76741507E-12    2
 3.57575862E+04-6.39938534E+00-4.02571237E+00 8.68903664E-02-4.43162753E-05    3
-3.92669882E-09 7.29306834E-12 3.86050373E+04 4.43375534E+01                   4
![_ SMILES="[CH]1C=CC(=C1)C1C=CCC=1" _]
N1c                     H   9C  10          G   290.000  2500.000 1003.72      1
 5.97950942E+00 6.63632628E-02-4.21080142E-05 1.34287396E-08-1.71263856E-12    2
 3.77046752E+04-8.56907955E+00-4.11881569E+00 8.83372000E-02-4.76437557E-05    3
-1.02904286E-09 6.40527236E-12 4.06521423E+04 4.47713956E+01                   4
![_ SMILES="C1C=CC2(C=1)C1C=CCC12" _]
T2                      H  10C  10          G   290.000  2500.000  993.72      1
 2.24965454E+00 7.83275137E-02-5.17484249E-05 1.70934715E-08-2.23904299E-12    2
 3.32602959E+04 7.45197371E+00-3.73794153E+00 8.12164931E-02-2.40887687E-05    3
-2.29449339E-08 1.32383283E-11 3.54976439E+04 4.15708069E+01                   4
![_ SMILES="C=CC=CC=C1C=CC=C1" _]
T3                      H  10C  10          G   290.000  2500.000 1198.28      1
 9.37871514E+00 6.42177623E-02-3.88665539E-05 1.14302227E-08-1.31782879E-12    2
 3.11228515E+04-2.82569346E+01-1.39281669E+01 1.42021352E-01-1.36263728E-04    3
 6.56191512E-08-1.26237521E-11 3.67083084E+04 8.84004757E+01                   4
![_ SMILES="C1C=CC2=CC=CC2CC=1" _]
T4a                     H  10C  10          G   290.000  2500.000  984.16      1
 1.69869964E+00 7.75492162E-02-4.96991850E-05 1.58948304E-08-2.02270831E-12    2
 2.69044258E+04 1.14400059E+01-3.46719646E+00 7.94521007E-02-2.34986475E-05    3
-2.15660632E-08 1.25007387E-11 2.88459015E+04 4.09777019E+01                   4
![_ SMILES="C1C=CC2C=CCC=2CC=1" _]
T4b                     H  10C  10          G   290.000  2500.000  985.17      1
 2.42757683E+00 7.56854127E-02-4.78495505E-05 1.51046679E-08-1.90109234E-12    2
 2.54259779E+04 7.66737579E+00-3.60655697E+00 8.17788055E-02-2.91021382E-05    3
-1.65462228E-08 1.09431896E-11 2.75081444E+04 4.12218232E+01                   4
![_ SMILES="C1=CCC=C2C=CCC2=C1" _]
T4c                     H  10C  10          G   290.000  2500.000  984.30      1
 2.30198531E+00 7.58373479E-02-4.79377001E-05 1.51310660E-08-1.90431572E-12    2
 2.60150682E+04 8.18551433E+00-3.56649128E+00 8.13140024E-02-2.82869101E-05    3
-1.71404899E-08 1.11083464E-11 2.80603111E+04 4.09254850E+01                   4
![_ SMILES="C1=CC=C2C=CCC2C=C1" _]
T4d                     H  10C  10          G   290.000  2500.000  984.75      1
 1.55219226E+00 7.79163170E-02-5.00395086E-05 1.60335655E-08-2.04348068E-12    2
 2.56509100E+04 1.20484497E+01-3.44395807E+00 7.90154448E-02-2.24756130E-05    3
-2.24207374E-08 1.27440201E-11 2.75656071E+04 4.08007839E+01                   4
![_ SMILES="C1=CC2C=CCC=2C=CC1" _]
T4e                     H  10C  10          G   290.000  2500.000  985.84      1
 2.51908428E+00 7.56019877E-02-4.78677294E-05 1.51395822E-08-1.90923583E-12    2
 2.44909004E+04 6.92496902E+00-3.63392302E+00 8.20247952E-02-2.94269376E-05    3
-1.64097917E-08 1.09296008E-11 2.66051497E+04 4.10919834E+01                   4
![_ SMILES="C1C=CC2=CCC=C2CC=1" _]
T4f                     H  10C  10          G   290.000  2500.000  985.03      1
 2.56997891E+00 7.52215445E-02-4.73723911E-05 1.49020904E-08-1.87038099E-12    2
 2.63379759E+04 7.25461087E+00-3.62207114E+00 8.21739086E-02-3.02563469E-05    3
-1.54314083E-08 1.05868228E-11 2.84404299E+04 4.15142565E+01                   4
![_ SMILES="C1=CC2C=CCC=CC2=C1" _]
T4g                     H  10C  10          G   290.000  2500.000  982.28      1
 2.29566900E+00 7.54688480E-02-4.73091331E-05 1.47925563E-08-1.84519436E-12    2
 2.66175389E+04 9.00127641E+00-3.53579738E+00 8.14602465E-02-2.93448192E-05    3
-1.58016060E-08 1.06248256E-11 2.86197385E+04 4.13906133E+01                   4
![_ SMILES="C1=CC2=CCC=C2C=CC1" _]
T4h                     H  10C  10          G   290.000  2500.000  988.18      1
 2.57288779E+00 7.57974489E-02-4.82858495E-05 1.53794684E-08-1.95251762E-12    2
 2.91811219E+04 6.85275573E+00-3.67142730E+00 8.20590452E-02-2.89276689E-05    3
-1.71525430E-08 1.12040644E-11 3.13435985E+04 4.16011281E+01                   4
![_ SMILES="[H]" _]
H                       H   1               G   290.000  2500.000 1977.12      1
 2.49999945E+00 1.03892929E-09-7.39474695E-13 2.33084349E-16-2.74484988E-20    2
 2.54725548E+04-4.61276306E-01 2.50000000E+00 6.29535218E-13-1.09977627E-15    3
 7.55426957E-19-1.75926497E-22 2.54725546E+04-4.61279341E-01                   4
![_ SMILES="[CH]1C=CC=CC2=CC=CC12" _]
N7a                     H   9C  10          G   290.000  2500.000  997.10      1
 4.05998024E+00 7.03308041E-02-4.53261110E-05 1.46054421E-08-1.87359615E-12    2
 3.65745890E+04-1.43157747E-01-3.70962382E+00 8.25487844E-02-3.51973873E-05    3
-1.12280103E-08 9.38275688E-12 3.90660542E+04 4.20420862E+01                   4
![_ SMILES="[CH]1C=CC2=CCC=C2C=C1" _]
N7b                     H   9C  10          G   290.000  2500.000  993.84      1
 3.97902797E+00 7.00911105E-02-4.47966167E-05 1.43021164E-08-1.81914901E-12    2
 3.37080600E+04 2.86217609E-01-3.65635875E+00 8.24854153E-02-3.58280661E-05    3
-1.02784579E-08 9.03396087E-12 3.61312990E+04 4.16312677E+01                   4
![_ SMILES="C1=CC=C2CC=C[C]2C=C1" _]
N7c                     H   9C  10          G   290.000  2500.000  998.11      1
 5.27098489E+00 6.70229362E-02-4.19940195E-05 1.31765426E-08-1.65340196E-12    2
 3.30970443E+04-5.76809953E+00-3.90287031E+00 8.66138965E-02-4.56261908E-05    3
-1.63676004E-09 6.37496709E-12 3.57837950E+04 4.27584478E+01                   4
! ___ C10H9 Thermo ___
![_ SMILES="C1C=CC(C=1)=C1C=CC=C1" _]
Flvln                   H   8C  10          G   290.000  2500.000 1003.92      1
 5.78329416E+00 6.31876250E-02-4.05395957E-05 1.30561082E-08-1.67782886E-12    2
 3.85133638E+04-9.45640014E+00-3.67268823E+00 8.30393741E-02-4.35684478E-05    3
-2.61832170E-09 6.62968534E-12 4.13101936E+04 4.06738204E+01                   4
![_ SMILES="[CH]1C=CC2C1C21C=CC=C1" _]
N_2                     H   9C  10          G   290.000  2500.000 1005.88      1
 5.56830215E+00 6.85400481E-02-4.49296410E-05 1.48053141E-08-1.94180439E-12    2
 4.68399400E+04-8.49768276E+00-4.12522022E+00 8.66539337E-02-4.14702353E-05    3
-7.68316429E-09 8.66690088E-12 4.98237629E+04 4.34631922E+01                   4
![_ SMILES="[CH]1C=CC=CC12C=CC=C2" _]
N3                      H   9C  10          G   290.000  2500.000 1002.32      1
 5.50903925E+00 6.75219939E-02-4.33218089E-05 1.39759463E-08-1.80049472E-12    2
 4.00501394E+04-7.05824800E+00-4.02273501E+00 8.65293004E-02-4.32857378E-05    3
-4.99132576E-09 7.65517371E-12 4.29169210E+04 4.37180807E+01                   4
![_ SMILES="[CH]1C=CC23C=CC=CC2C13" _]
N4                      H   9C  10          G   290.000  2500.000 1002.36      1
 5.09781369E+00 6.87134214E-02-4.44649446E-05 1.44423618E-08-1.86960673E-12    2
 4.40646282E+04-6.44965125E+00-3.96796251E+00 8.53901737E-02-4.02384514E-05    3
-7.77810096E-09 8.51338643E-12 4.68617142E+04 4.21955859E+01                   4
![_ SMILES="[CH]1C=CC=C2C=CC=CC12" _]
N5                      H   9C  10          G   290.000  2500.000  994.70      1
 3.28204503E+00 7.21991434E-02-4.69510283E-05 1.52246166E-08-1.96070335E-12    2
 3.32375924E+04 3.48699952E+00-3.56358574E+00 8.04398718E-02-3.02920226E-05    3
-1.54346983E-08 1.06445112E-11 3.55536429E+04 4.12731784E+01                   4
![_ SMILES="[CH]=CC=CC1C=CC=CC=1" _]
N6                      H   9C  10          G   290.000  2500.000 1011.49      1
 7.14467409E+00 6.18880538E-02-3.70153737E-05 1.11007325E-08-1.33892070E-12    2
 4.96486051E+04-1.20301470E+01-4.13006384E+00 9.31912020E-02-6.37378473E-05    3
 1.57299775E-08 7.25878057E-13 5.26089892E+04 4.58517907E+01                   4
![_ SMILES="[CH]1C=CC=CC2=CC=CC12" _]
N7a                     H   9C  10          G   290.000  2500.000  997.10      1
 4.05998024E+00 7.03308041E-02-4.53261110E-05 1.46054421E-08-1.87359615E-12    2
 3.65745890E+04-1.43157747E-01-3.70962382E+00 8.25487844E-02-3.51973873E-05    3
-1.12280103E-08 9.38275688E-12 3.90660542E+04 4.20420862E+01                   4
![_ SMILES="[CH]1C=CC2=CCC=C2C=C1" _]
N7b                     H   9C  10          G   290.000  2500.000  993.84      1
 3.97902797E+00 7.00911105E-02-4.47966167E-05 1.43021164E-08-1.81914901E-12    2
 3.37080600E+04 2.86217609E-01-3.65635875E+00 8.24854153E-02-3.58280661E-05    3
-1.02784579E-08 9.03396087E-12 3.61312990E+04 4.16312677E+01                   4
![_ SMILES="C1=CC=C2CC=C[C]2C=C1" _]
N7c                     H   9C  10          G   290.000  2500.000  998.11      1
 5.27098489E+00 6.70229362E-02-4.19940195E-05 1.31765426E-08-1.65340196E-12    2
 3.30970443E+04-5.76809953E+00-3.90287031E+00 8.66138965E-02-4.56261908E-05    3
-1.63676004E-09 6.37496709E-12 3.57837950E+04 4.27584478E+01                   4
![_ SMILES="C1=CC=C2C=CC=C2C=C1" _]
Azln                    H   8C  10          G   290.000  2500.000  993.13      1
 3.07400363E+00 6.85715365E-02-4.47231133E-05 1.45232075E-08-1.87084536E-12    2
 2.86023459E+04 3.68455844E+00-3.07240732E+00 7.51332955E-02-2.71543545E-05    3
-1.57165438E-08 1.03848050E-11 3.07204322E+04 3.78123273E+01                   4
![_ SMILES="C1=CC=C2C=CC=CC2=C1" _]
Nphln                   H   8C  10          G   290.000  2500.000  989.12      1
 1.30485659E+00 7.26284973E-02-4.83927607E-05 1.59901025E-08-2.08603118E-12    2
 1.16190060E+04 1.15000650E+01-2.70958557E+00 7.01024476E-02-1.61115447E-05    3
-2.49432056E-08 1.31065778E-11 1.33308730E+04 3.54625746E+01                   4
AR                ATcT3EAr  1    0    0    0G    200.00   6000.00 1000.00      1
 0.00000000E+00 0.00000000E+00 0.00000000E+00 0.00000000E+00 0.00000000E+00    2
 0.00000000E+00 0.00000000E+00 0.00000000E+00 0.00000000E+00 0.00000000E+00    3
 0.00000000E+00 0.00000000E+00 0.00000000E+00 0.00000000E+00                   4
END
