THERMO 

   300.000  1500.000  5000.000 

AR                ATcT3EAr  1    0    0    0G    200.00   6000.00 1000.00      1

 0.00000000E+00 0.00000000E+00 0.00000000E+00 0.00000000E+00 0.00000000E+00    2

 0.00000000E+00 0.00000000E+00 0.00000000E+00 0.00000000E+00 0.00000000E+00    3

 0.00000000E+00 0.00000000E+00 0.00000000E+00 0.00000000E+00                   4

W2                      C   5H   6O   1     G    300.00   4000.00 1000.00      1

 0.00000000E+00 0.00000000E+00 0.00000000E+00 0.00000000E+00 0.00000000E+00    2

 0.00000000E+00 0.00000000E+00 0.00000000E+00 0.00000000E+00 0.00000000E+00    3

 0.00000000E+00 0.00000000E+00 0.00000000E+00 0.00000000E+00                   4

P6                      C   5H   5O   1     G    300.00   4000.00 1000.00      1

 0.00000000E+00 0.00000000E+00 0.00000000E+00 0.00000000E+00 0.00000000E+00    2

 0.00000000E+00 0.00000000E+00 0.00000000E+00 0.00000000E+00 0.00000000E+00    3

 0.00000000E+00 0.00000000E+00 0.00000000E+00 0.00000000E+00                   4

W4_L                    C   5H   6O   1     G    300.00   4000.00 1000.00      1

 0.00000000E+00 0.00000000E+00 0.00000000E+00 0.00000000E+00 0.00000000E+00    2

 0.00000000E+00 0.00000000E+00 0.00000000E+00 0.00000000E+00 0.00000000E+00    3

 0.00000000E+00 0.00000000E+00 0.00000000E+00 0.00000000E+00                   4

W1_L                    C   5H   6O   1     G    300.00   4000.00 1000.00      1

 0.00000000E+00 0.00000000E+00 0.00000000E+00 0.00000000E+00 0.00000000E+00    2

 0.00000000E+00 0.00000000E+00 0.00000000E+00 0.00000000E+00 0.00000000E+00    3

 0.00000000E+00 0.00000000E+00 0.00000000E+00 0.00000000E+00                   4

W3                      C   5H   6O   1     G    300.00   4000.00 1000.00      1

 0.00000000E+00 0.00000000E+00 0.00000000E+00 0.00000000E+00 0.00000000E+00    2

 0.00000000E+00 0.00000000E+00 0.00000000E+00 0.00000000E+00 0.00000000E+00    3

 0.00000000E+00 0.00000000E+00 0.00000000E+00 0.00000000E+00                   4

R                       C   5H   5O   1     G    300.00   4000.00 1000.00      1

 0.00000000E+00 0.00000000E+00 0.00000000E+00 0.00000000E+00 0.00000000E+00    2

 0.00000000E+00 0.00000000E+00 0.00000000E+00 0.00000000E+00 0.00000000E+00    3

 0.00000000E+00 0.00000000E+00 0.00000000E+00 0.00000000E+00                   4

P1                      C   5H   5O   1     G    300.00   4000.00 1000.00      1

 0.00000000E+00 0.00000000E+00 0.00000000E+00 0.00000000E+00 0.00000000E+00    2

 0.00000000E+00 0.00000000E+00 0.00000000E+00 0.00000000E+00 0.00000000E+00    3

 0.00000000E+00 0.00000000E+00 0.00000000E+00 0.00000000E+00                   4

P2                      C   5H   5O   1     G    300.00   4000.00 1000.00      1

 0.00000000E+00 0.00000000E+00 0.00000000E+00 0.00000000E+00 0.00000000E+00    2

 0.00000000E+00 0.00000000E+00 0.00000000E+00 0.00000000E+00 0.00000000E+00    3

 0.00000000E+00 0.00000000E+00 0.00000000E+00 0.00000000E+00                   4

P2_L                    C   5H   5O   1     G    300.00   4000.00 1000.00      1

 0.00000000E+00 0.00000000E+00 0.00000000E+00 0.00000000E+00 0.00000000E+00    2

 0.00000000E+00 0.00000000E+00 0.00000000E+00 0.00000000E+00 0.00000000E+00    3

 0.00000000E+00 0.00000000E+00 0.00000000E+00 0.00000000E+00                   4

P3                      C   5H   5O   1     G    300.00   4000.00 1000.00      1

 0.00000000E+00 0.00000000E+00 0.00000000E+00 0.00000000E+00 0.00000000E+00    2

 0.00000000E+00 0.00000000E+00 0.00000000E+00 0.00000000E+00 0.00000000E+00    3

 0.00000000E+00 0.00000000E+00 0.00000000E+00 0.00000000E+00                   4

P4                      C   5H   5O   1     G    300.00   4000.00 1000.00      1

 0.00000000E+00 0.00000000E+00 0.00000000E+00 0.00000000E+00 0.00000000E+00    2

 0.00000000E+00 0.00000000E+00 0.00000000E+00 0.00000000E+00 0.00000000E+00    3

 0.00000000E+00 0.00000000E+00 0.00000000E+00 0.00000000E+00                   4

P5                      C   5H   5O   1     G    300.00   4000.00 1000.00      1

 0.00000000E+00 0.00000000E+00 0.00000000E+00 0.00000000E+00 0.00000000E+00    2

 0.00000000E+00 0.00000000E+00 0.00000000E+00 0.00000000E+00 0.00000000E+00    3

 0.00000000E+00 0.00000000E+00 0.00000000E+00 0.00000000E+00                   4

H                       C   0H   1O   0     G    300.00   4000.00 1000.00      1

 0.00000000E+00 0.00000000E+00 0.00000000E+00 0.00000000E+00 0.00000000E+00    2

 0.00000000E+00 0.00000000E+00 0.00000000E+00 0.00000000E+00 0.00000000E+00    3

 0.00000000E+00 0.00000000E+00 0.00000000E+00 0.00000000E+00                   4

OH                      C   0H   1O   0     G    300.00   4000.00 1000.00      1

 0.00000000E+00 0.00000000E+00 0.00000000E+00 0.00000000E+00 0.00000000E+00    2

 0.00000000E+00 0.00000000E+00 0.00000000E+00 0.00000000E+00 0.00000000E+00    3

 0.00000000E+00 0.00000000E+00 0.00000000E+00 0.00000000E+00                   4

CO                      C   0H   1O   0     G    300.00   4000.00 1000.00      1

 0.00000000E+00 0.00000000E+00 0.00000000E+00 0.00000000E+00 0.00000000E+00    2

 0.00000000E+00 0.00000000E+00 0.00000000E+00 0.00000000E+00 0.00000000E+00    3

 0.00000000E+00 0.00000000E+00 0.00000000E+00 0.00000000E+00                   4

HCO                     C   0H   1O   0     G    300.00   4000.00 1000.00      1

 0.00000000E+00 0.00000000E+00 0.00000000E+00 0.00000000E+00 0.00000000E+00    2

 0.00000000E+00 0.00000000E+00 0.00000000E+00 0.00000000E+00 0.00000000E+00    3

 0.00000000E+00 0.00000000E+00 0.00000000E+00 0.00000000E+00                   4

P3B                     C   0H   1O   0     G    300.00   4000.00 1000.00      1

 0.00000000E+00 0.00000000E+00 0.00000000E+00 0.00000000E+00 0.00000000E+00    2

 0.00000000E+00 0.00000000E+00 0.00000000E+00 0.00000000E+00 0.00000000E+00    3

 0.00000000E+00 0.00000000E+00 0.00000000E+00 0.00000000E+00                   4

P4B                     C   0H   1O   0     G    300.00   4000.00 1000.00      1

 0.00000000E+00 0.00000000E+00 0.00000000E+00 0.00000000E+00 0.00000000E+00    2

 0.00000000E+00 0.00000000E+00 0.00000000E+00 0.00000000E+00 0.00000000E+00    3

 0.00000000E+00 0.00000000E+00 0.00000000E+00 0.00000000E+00                   4

P5B                     C   0H   1O   0     G    300.00   4000.00 1000.00      1

 0.00000000E+00 0.00000000E+00 0.00000000E+00 0.00000000E+00 0.00000000E+00    2

 0.00000000E+00 0.00000000E+00 0.00000000E+00 0.00000000E+00 0.00000000E+00    3

 0.00000000E+00 0.00000000E+00 0.00000000E+00 0.00000000E+00                   4

END